Version 4
SHEET 1 1160 680
WIRE 416 64 368 64
WIRE 544 64 480 64
WIRE -832 160 -880 160
WIRE -336 160 -752 160
WIRE -80 160 -240 160
WIRE 96 160 -80 160
WIRE 368 160 368 64
WIRE 368 160 192 160
WIRE 416 160 368 160
WIRE 544 160 544 64
WIRE 544 160 496 160
WIRE 592 160 544 160
WIRE 704 160 592 160
WIRE 976 160 800 160
WIRE 1104 160 976 160
WIRE -336 192 -400 192
WIRE -176 192 -240 192
WIRE -80 192 -80 160
WIRE 96 192 32 192
WIRE 256 192 192 192
WIRE 704 192 640 192
WIRE 864 192 800 192
WIRE 976 208 976 160
WIRE 1104 208 1104 160
WIRE -880 224 -880 160
WIRE -400 240 -400 192
WIRE -176 240 -176 192
WIRE 32 240 32 192
WIRE 256 240 256 192
WIRE 640 240 640 192
WIRE 864 240 864 192
WIRE 592 256 592 160
WIRE -592 288 -592 272
WIRE -80 288 -80 272
WIRE 976 304 976 288
WIRE 1104 304 1104 272
WIRE -880 320 -880 304
FLAG -80 288 0
FLAG -880 320 0
FLAG 32 240 0
FLAG 256 240 0
FLAG 640 240 0
FLAG 864 240 0
FLAG 976 304 0
FLAG 1104 304 0
FLAG -592 288 0
FLAG -400 240 0
FLAG -176 240 0
FLAG -592 192 0
SYMBOL tline 144 176 R0
SYMATTR InstName T1
SYMATTR Value Td=42p Z0=50
SYMBOL res -96 176 R0
SYMATTR InstName R1
SYMATTR Value 50
SYMBOL res -736 144 R90
WINDOW 0 0 56 VBottom 2
WINDOW 3 32 56 VTop 2
SYMATTR InstName R2
SYMATTR Value 50
SYMBOL voltage -880 208 R0
WINDOW 123 24 124 Left 2
WINDOW 39 0 0 Left 0
SYMATTR InstName V1
SYMATTR Value ""
SYMATTR Value2 AC 2
SYMBOL tline 752 176 R0
SYMATTR InstName T2
SYMATTR Value Td=100p Z0=50
SYMBOL res 960 192 R0
SYMATTR InstName R3
SYMATTR Value 1Meg
SYMBOL cap 1088 208 R0
SYMATTR InstName C1
SYMATTR Value 17p
SYMBOL cap 480 48 R90
WINDOW 0 0 32 VBottom 2
WINDOW 3 32 32 VTop 2
SYMATTR InstName C2
SYMATTR Value 15n
SYMBOL res 512 144 R90
WINDOW 0 0 56 VBottom 2
WINDOW 3 32 56 VTop 2
SYMATTR InstName R4
SYMATTR Value 1k
SYMBOL current -592 192 R0
WINDOW 123 24 108 Left 2
WINDOW 39 0 0 Left 0
SYMATTR InstName I1
SYMATTR Value 0
SYMATTR Value2 AC 1
SYMBOL tline -288 176 R0
SYMATTR InstName T3
SYMATTR Value Td =4n Z0=50
TEXT 192 352 Left 2 !.ac dec 100 1 10gig
